/*--------------------------------*- C++ -*----------------------------------*\
  =========                 |
  \\      /  F ield         | OpenFOAM: The Open Source CFD Toolbox
   \\    /   O peration     | Website:  https://openfoam.org
    \\  /    A nd           | Version:  6
     \\/     M anipulation  |
\*---------------------------------------------------------------------------*/
FoamFile
{
    version     2.0;
    format      binary;
    class       dictionary;
    location    "constant";
    object      SprayCloudProperties;
}
// * * * * * * * * * * * * * * * * * * * * * * * * * * * * * * * * * * * * * //

solution
{
    active          true;
    coupled         true;
    transient       yes;
    cellValueSourceCorrection on;
    maxCo           0.3;

    sourceTerms
    {
        schemes
        {
            rho             explicit 1;
            U               explicit 1;
            Yi              explicit 1;
            h               explicit 1;
            radiation       explicit 1;
        }
    }

    interpolationSchemes
    {
        rho             cell;
        U               cellPoint;
        thermo:mu       cell;
        T               cell;
        Cp              cell;
        kappa           cell;
        p               cell;
    }

    integrationSchemes
    {
        U               Euler;
        T               analytical;
    }
}


constantProperties
{
    T0              373;

    // place holders for rho0 and Cp0
    // - reset from liquid properties using T0
    rho0            800;
    Cp0             4200;

    constantVolume  false;
}


subModels
{
    particleForces
    {
        sphereDrag;
    }

    injectionModels
    {
        model1
        {
            type            coneNozzleInjection;
            SOI             0;
            massTotal       3.4e-6;
            parcelBasisType mass;
            injectionMethod disc;
            flowType        flowRateAndDischarge;
            outerDiameter   8.4e-5;
            innerDiameter   0;
            duration        1.5e-3;
            position        (0 0 0.1008);
            direction       (0 0 -1);
            parcelsPerSecond 20000000;
            flowRateProfile table
            (
                (0.0            0.000001111)
 		(0.00000461     0.198529411)
 		(0.00001202     1.676470588)
 		(0.00001649     1.952205882)
 		(0.00006001     2.404411764)
 		(0.00015332     2.481617647)
 		(0.00027138     2.470588235)
 		(0.00043351     2.569852941)
 		(0.00057613     2.569852941)
 		(0.00074812     2.658088235)
 		(0.00092529     2.580882353)
 		(0.00105312     2.602941176)
 		(0.00117127     2.536764706)
 		(0.00128936     2.503676470)
 		(0.00141231     2.503676470)
 		(0.00145181     2.404411764)
 		(0.00146214     2.106617647)
 		(0.00146269     1.764705882)
 		(0.00147302     1.466911764)
 		(0.00147852     1.113970588)
 		(0.00148179     0.849264705)
 		(0.00148544     0.584558823)
 		(0.00149326     0.308823529)
 		(0.00149901     0.066176471)
                (0.00150        0.000001111)
                (100            0.0)
            );

            Cd              constant 0.9;

            thetaInner      constant 0.0;
            thetaOuter      constant 16.0;

            sizeDistribution
            {
                type        RosinRammler;

                RosinRammlerDistribution
                {
                    minValue        1e-07;
                    maxValue        0.000084;
                    d               0.000084;
                    n               3;
                }
            }
        }
    }

    dispersionModel none;

    patchInteractionModel standardWallInteraction;

    heatTransferModel RanzMarshall;

    compositionModel singlePhaseMixture;

    phaseChangeModel multiDiffusionEvap;//liquidEvaporationBoil;//

    surfaceFilmModel none;

    atomizationModel none;

    breakupModel    ReitzKHRT;//ReitzDiwakar; // 

    stochasticCollisionModel none;

    radiation       off;

    standardWallInteractionCoeffs
    {
        type            rebound;
    }

    RanzMarshallCoeffs
    {
        BirdCorrection  true;
    }

    singlePhaseMixtureCoeffs
    {
        phases
        (
            liquid
            {
                C12H26              1.0;
            }
        );
    }

    multiDiffusionEvapCoeffs//liquidEvaporationBoilCoeffs//
    {
        enthalpyTransfer enthalpyDifference;

        activeLiquids    (C12H26);
    }

    /*ReitzDiwakarCoeffs
    {
        solveOscillationEq yes;
        Cbag            6;
        Cb              0.785;
        Cstrip          0.5;
        Cs              10;
    }*/


    ReitzKHRTCoeffs
    {
        solveOscillationEq yes;
        B0              0.61;
        B1              20;
        Ctau            1;
        CRT             0.1;
        msLimit         0.2;
        WeberLimit      6;
    }

    /*TABCoeffs
    {
        y0              0;
        yDot0           0;
        Cmu             10;
        Comega          8;
        WeCrit          12;
    }*/
}


cloudFunctions
{}


// ************************************************************************* //
